Version 4
SHEET 1 5945676 13421556
WIRE 3584 -96 3552 -96
WIRE 3680 -96 3648 -96
WIRE 3792 -96 3760 -96
WIRE 2096 -80 2016 -80
WIRE 2176 -80 2096 -80
WIRE 2368 -80 2176 -80
WIRE 2528 -80 2368 -80
WIRE 2640 -80 2528 -80
WIRE 2720 -80 2640 -80
WIRE 2800 -80 2720 -80
WIRE 2864 -80 2800 -80
WIRE 2912 -80 2864 -80
WIRE 3008 -80 2912 -80
WIRE 3136 -80 3008 -80
WIRE 3312 -80 3216 -80
WIRE 2016 -64 2016 -80
WIRE 2528 -48 2528 -80
WIRE 2640 -48 2640 -80
WIRE 2720 -48 2720 -80
WIRE 2800 -48 2800 -80
WIRE 2864 -48 2864 -80
WIRE 2912 -48 2912 -80
WIRE 3008 -32 3008 -80
WIRE 2176 -16 2176 -80
WIRE 2368 -16 2368 -80
WIRE 3312 -16 3312 -80
WIRE 3424 -16 3312 -16
WIRE 3552 -16 3552 -96
WIRE 3552 -16 3488 -16
WIRE 3664 -16 3552 -16
WIRE 3792 -16 3792 -96
WIRE 3792 -16 3728 -16
WIRE 4176 -16 3792 -16
WIRE 3312 0 3312 -16
WIRE 3424 0 3424 -16
WIRE 3488 0 3488 -16
WIRE 3792 0 3792 -16
WIRE 4176 0 4176 -16
WIRE 2016 32 2016 16
WIRE 2528 48 2528 16
WIRE 2640 48 2640 32
WIRE 2640 48 2528 48
WIRE 2720 48 2720 32
WIRE 2720 48 2640 48
WIRE 2800 48 2800 32
WIRE 2800 48 2720 48
WIRE 2864 48 2864 32
WIRE 2864 48 2800 48
WIRE 2912 48 2912 32
WIRE 2912 48 2864 48
WIRE 3008 48 2912 48
WIRE 2640 80 2640 48
WIRE 3312 96 3312 80
WIRE 3424 96 3424 80
WIRE 3424 96 3312 96
WIRE 3488 96 3488 80
WIRE 3792 96 3792 64
WIRE 3792 96 3488 96
WIRE 4176 96 4176 80
WIRE 4176 96 3792 96
WIRE 4176 112 4176 96
WIRE 2176 144 2176 64
WIRE 2224 144 2176 144
WIRE 2320 144 2288 144
WIRE 2640 160 2640 144
WIRE 3312 160 3312 96
WIRE 3312 160 2640 160
WIRE 1776 208 1680 208
WIRE 1840 208 1776 208
WIRE 1968 208 1904 208
WIRE 2048 208 1968 208
WIRE 2640 208 2128 208
WIRE 3424 208 2640 208
WIRE 1776 224 1776 208
WIRE 1968 224 1968 208
WIRE 3424 224 3424 208
WIRE 1680 240 1680 208
WIRE 2176 272 2176 144
WIRE 2400 272 2176 272
WIRE 2464 272 2400 272
WIRE 2560 272 2544 272
WIRE 2640 272 2640 208
WIRE 2640 272 2624 272
WIRE 2400 288 2400 272
WIRE 1776 320 1776 288
WIRE 1968 320 1968 288
WIRE 3424 320 3424 304
WIRE 2176 336 2176 272
WIRE 3312 352 3312 160
WIRE 3312 352 2704 352
WIRE 2400 384 2400 352
WIRE 1680 400 1680 320
WIRE 2016 400 1680 400
WIRE 2464 432 2336 432
WIRE 2656 432 2544 432
WIRE 1680 464 1680 400
WIRE 1776 464 1680 464
WIRE 1904 464 1856 464
WIRE 2016 464 1968 464
WIRE 1680 480 1680 464
WIRE 1872 528 1760 528
WIRE 2016 528 1872 528
WIRE 1760 544 1760 528
WIRE 1872 544 1872 528
WIRE 2368 560 2368 64
WIRE 2368 560 2336 560
WIRE 2400 560 2368 560
WIRE 2464 560 2400 560
WIRE 2704 560 2704 448
WIRE 2704 560 2544 560
WIRE 1680 576 1680 560
WIRE 2704 576 2704 560
WIRE 2016 592 1968 592
WIRE 2400 592 2400 560
WIRE 1872 624 1872 608
WIRE 1760 656 1760 624
WIRE 1968 656 1968 592
WIRE 1968 656 1760 656
WIRE 1760 672 1760 656
WIRE 2400 672 2400 656
WIRE 2704 672 2704 656
WIRE 2176 704 2176 656
WIRE 1760 752 1760 736
FLAG 2704 672 0
FLAG 1760 752 0
FLAG 1872 624 0
FLAG 1680 576 0
FLAG 2176 704 0
FLAG 1776 320 0
FLAG 1968 320 0
FLAG 2400 384 0
FLAG 2016 32 0
FLAG 2320 144 0
FLAG 4176 -16 +20V
FLAG 4176 112 0
FLAG 2016 -80 IN
FLAG 2400 672 0
FLAG 2096 -16 0
FLAG 3424 320 0
SYMBOL RES 2688 560 R0
SYMATTR InstName Rsense
SYMATTR Value 0.15
SYMBOL cap 1744 672 R0
SYMATTR InstName C1
SYMATTR Value 1.1n
SYMBOL cap 1856 544 R0
SYMATTR InstName C2
SYMATTR Value 1µ
SYMBOL cap 1968 448 R90
WINDOW 0 0 32 VBottom 2
WINDOW 3 32 32 VTop 2
SYMATTR InstName C3
SYMATTR Value 10n
SYMBOL res 1872 448 R90
WINDOW 0 0 56 VBottom 2
WINDOW 3 32 56 VTop 2
SYMATTR InstName R2
SYMATTR Value 5k
SYMBOL res 1744 528 R0
SYMATTR InstName R3
SYMATTR Value 17.7k
SYMBOL res 1664 464 R0
SYMATTR InstName RT
SYMATTR Value 20k
SYMBOL res 2560 544 R90
WINDOW 0 0 56 VBottom 2
WINDOW 3 32 56 VTop 2
SYMATTR InstName R5
SYMATTR Value 1k
SYMBOL NMOS 2656 352 R0
SYMATTR InstName Q1
SYMATTR Value IRF530
SYMBOL res 2560 416 R90
WINDOW 0 0 56 VBottom 2
WINDOW 3 32 56 VTop 2
SYMATTR InstName R6
SYMATTR Value 10
SYMBOL res 1664 224 R0
SYMATTR InstName R7
SYMATTR Value 105k
SYMBOL cap 1760 224 R0
SYMATTR InstName C4
SYMATTR Value 0.0022µ
SYMBOL cap 1952 224 R0
SYMATTR InstName C5
SYMATTR Value 100p
SYMBOL schottky 1904 192 R90
WINDOW 0 0 32 VBottom 2
WINDOW 3 32 32 VTop 2
SYMATTR InstName D1
SYMATTR Value BAT54
SYMBOL cap 2384 288 R0
SYMATTR InstName C6
SYMATTR Value 22µ
SYMBOL res 2560 256 R90
WINDOW 0 0 56 VBottom 2
WINDOW 3 32 56 VTop 2
SYMATTR InstName R8
SYMATTR Value 39
SYMBOL schottky 2624 256 R90
WINDOW 0 0 32 VBottom 2
WINDOW 3 32 32 VTop 2
SYMATTR InstName D2
SYMATTR Value BAT54
SYMBOL res 2352 -32 R0
SYMATTR InstName R9
SYMATTR Value 1Meg
SYMBOL res 2624 -64 R0
SYMATTR InstName R10
SYMATTR Value 50k
SYMBOL cap 2512 -48 R0
SYMATTR InstName C7
SYMATTR Value 10µ
SYMBOL ind2 3504 -16 M0
WINDOW 0 -6 41 Right 2
WINDOW 3 -1 70 Right 2
SYMATTR InstName L1
SYMATTR Value 1
SYMATTR SpiceLine Rser=.05 Rpar=2K
SYMBOL ind2 3408 208 R0
WINDOW 0 -3 35 Right 2
WINDOW 3 -6 73 Right 2
SYMATTR InstName L2
SYMATTR Value 1
SYMATTR Value2 Rser=.1
SYMBOL ind2 3408 96 M180
WINDOW 0 -6 77 Right 2
WINDOW 3 -3 43 Right 2
SYMATTR InstName L3
SYMATTR Value 1
SYMATTR SpiceLine Rser=.05 Rpar=5K
SYMBOL schottky 3664 -32 M90
WINDOW 0 -3 33 VBottom 2
WINDOW 3 32 32 VTop 2
SYMATTR InstName D3
SYMATTR Value PDS5100
SYMBOL cap 3776 0 R0
WINDOW 0 35 22 Left 2
SYMATTR InstName C8
SYMATTR Value 120µ
SYMATTR SpiceLine Rser=.001
SYMBOL VOLTAGE 2016 -80 R0
WINDOW 123 0 0 Left 0
WINDOW 39 0 0 Left 0
SYMATTR InstName INP
SYMATTR Value 24
SYMBOL zener 2288 160 M270
WINDOW 0 36 32 VTop 2
WINDOW 3 -4 32 VBottom 2
SYMATTR InstName D4
SYMATTR Value BZX84C15L
SYMBOL diode 2624 144 M180
WINDOW 0 24 72 Left 2
WINDOW 3 24 0 Left 2
SYMATTR InstName D5
SYMATTR Value MURS120
SYMBOL res 2144 192 R90
WINDOW 0 0 56 VBottom 2
WINDOW 3 32 56 VTop 2
SYMATTR InstName R12
SYMATTR Value 510
SYMBOL res 2160 -32 R0
SYMATTR InstName R13
SYMATTR Value 60k
SYMBOL PowerProducts\\LT1241 2176 496 R0
SYMATTR InstName U1
SYMBOL res 4160 -16 R0
SYMATTR InstName Rload
SYMATTR Value 5
SYMBOL cap 2384 592 R0
SYMATTR InstName C10
SYMATTR Value 1n
SYMBOL cap 2080 -80 R0
SYMATTR InstName C11
SYMATTR Value 10µ
SYMBOL ind 3232 -96 R90
WINDOW 0 4 56 VBottom 2
WINDOW 3 32 56 VTop 2
SYMATTR InstName L4
SYMATTR Value 2.47µ
SYMBOL res 2704 -64 R0
SYMATTR InstName R1
SYMATTR Value 50k
SYMBOL res 2784 -64 R0
SYMATTR InstName R4
SYMATTR Value 50k
SYMBOL res 2848 -64 R0
SYMATTR InstName R15
SYMATTR Value 50k
SYMBOL res 2896 -64 R0
SYMATTR InstName R16
SYMATTR Value 50k
SYMBOL res 2992 -48 R0
SYMATTR InstName R17
SYMATTR Value 50k
SYMBOL ind 3296 -16 R0
SYMATTR InstName L9
SYMATTR Value 68µ
SYMBOL cap 3648 -112 R90
WINDOW 0 0 32 VBottom 2
WINDOW 3 32 32 VTop 2
SYMATTR InstName C9
SYMATTR Value 470p
SYMBOL res 3776 -112 R90
WINDOW 0 0 56 VBottom 2
WINDOW 3 32 56 VTop 2
SYMATTR InstName R11
SYMATTR Value 80
TEXT 3640 248 Left 2 !.tran 0 40m 0
TEXT 3448 -32 Bottom 2 !K1 L1 L2 L3 1
LINE Normal 3456 304 3456 0 2
LINE Normal 3456 304 3456 0 2
